market/autotest/test_controller.glm
//Input feeder information for masters thesis.
//Started on 10/21/09. This version created 26-Mar-2010 18:46:43.

clock {
     timezone PST+8PDT;
     starttime '2000-01-01 00:00:00';
     stoptime '2000-01-02 00:00:00';
}

#set minimum_timestep=60;

module assert;
module tape;
module market;
module residential {
     implicit_enduses NONE;
};
module powerflow {
     solver_method NR;
     NR_iteration_limit 50;
};

class auction {
     double current_price_mean_30min;
     double current_price_stdev_30min;
};
object auction {
    name Market_1town5;
    special_mode NONE;
    unit kW;
    period 900;
    init_price 30;
    init_stdev 5;
    warmup 0;


    object multi_recorder {
 	property current_market.clearing_price,current_market.clearing_quantity,current_market.seller_total_quantity,current_market.buyer_total_quantity;
 	file "market_5.csv";
 	interval 900;
 	limit 168;
 	};
}

  
object overhead_line_conductor:100 {
	geometric_mean_radius 0.0244;
	resistance 0.306;
}

object overhead_line_conductor:101 {
	geometric_mean_radius 0.00814;
	resistance 0.592;
}

object line_spacing:200 {
	distance_AB 2.5;
	distance_BC 4.5;
	distance_AC 7.0;
	distance_AN 5.656854;
	distance_BN 4.272002;
	distance_CN 5.0;
}

object line_configuration:300 {
	conductor_A overhead_line_conductor:100;
	conductor_B overhead_line_conductor:100;
	conductor_C overhead_line_conductor:100;
	conductor_N overhead_line_conductor:101;
	spacing line_spacing:200;
}

object transformer_configuration:400 {
	connect_type WYE_WYE;
	power_rating 6000;
	primary_voltage 12470;
	secondary_voltage 4160;
	resistance 0.01;
	reactance 0.06;
}

object node:1 {
	phases "ABCN";
	bustype SWING;
	voltage_A +7199.558+0.000j;
	voltage_B -3599.779-6235.000j;
	voltage_C -3599.779+6235.000j;
	nominal_voltage 7200;
}

object overhead_line:12 {
	phases "ABCN";
	from node:1;
	to node:2;
	length 2000;
	configuration line_configuration:300;
}

object node:2 {
	phases "ABCN";
	voltage_A +7199.558+0.000j;
	voltage_B -3599.779-6235.000j;
	voltage_C -3599.779+6235.000j;
	nominal_voltage 7200;
}

object transformer:23 {
	phases "ABCN";
	from node:2;
	to node:3;
	configuration transformer_configuration:400;
}

object node:3 {
	phases "ABCN";
	voltage_A +2401.777+0.000j;
	voltage_B -1200.889-2080.000j;
	voltage_C -1200.889+2080.000j;
	nominal_voltage 2400;
}

object overhead_line:34 {
	phases "ABCN";
	from node:3;
	to load:4;
	length 2500;
	configuration line_configuration:300;
}

object load:4 {
	phases "ABCN";
	name load4;
	voltage_A +2401.777+0.000j;
	voltage_B -1200.889-2080.000j;
	voltage_C -1200.889+2080.000j;
	constant_power_A +1000;
	constant_power_B +1000;
	constant_power_C +1000;
	nominal_voltage 2400;
}

object transformer_configuration {
		name AS_config;
		connect_type SINGLE_PHASE_CENTER_TAPPED;
		install_type POLETOP;
		powerA_rating 100;
		primary_voltage 2401.777;
		secondary_voltage 120.000;
		impedance 0.0006+0.000136j;

}

object transformer {
	phases AS;
	configuration AS_config;
	from load4;
	to triplex_1;
	nominal_voltage 2401.777;
	object recorder {
		file test_dutycycle.csv;
		interval 60;
		property power_out.real;
	};

}

object triplex_node {
	name triplex_1;
	nominal_voltage 120;
	phases AS;
}

object triplex_line_configuration {
     name TPLconfig;
     conductor_1 object triplex_line_conductor {
          resistance 0.97;
          geometric_mean_radius 0.0111;
     };

     conductor_2 object triplex_line_conductor {
          resistance 0.97;
          geometric_mean_radius 0.0111;
     };
     conductor_N object triplex_line_conductor {
          resistance 0.97;
          geometric_mean_radius 0.0111;
     };
     insulation_thickness 0.08;
     diameter 0.368;
}

object triplex_line {
	configuration TPLconfig;
	length 50;
	phases AS;
	from triplex_1;
	name tpl1;
	to triplex_2;	
}

object triplex_meter {
	name triplex_2;
	nominal_voltage 120;
	phases AS;
}


object house {
     parent triplex_2;
     groupid Residential;
     floor_area 1711;
     //Thermal integrity -> Single Family 5
     Rroof 34.06;
     Rwall 19.73;
     Rfloor 22.48;
     glazing_layers 2;
     glass_type 1;
     glazing_treatment 1;
     window_frame 2;
     Rdoors 3.23;
     airchange_per_hour 1.01;
     cooling_COP 2.5;
     air_temperature 71.71;
     mass_temperature 71.71;
     total_thermal_mass_per_floor_area 3.487;
     heating_system_type NONE;
     cooling_system_type NONE;
     cooling_setpoint 100;
     heating_setpoint 10;

         object waterheater {
              schedule_skew 1352;
              tank_volume 50;
              heating_element_capacity 4.3 kW;
              tank_setpoint 130.6;
              temperature 135;
              thermostat_deadband 4.2;
              location INSIDE;
              tank_UA 2.8;
              demand 10;
     
     object controller_service{
        schedule_skew -910;
        market Market_1town5;
        bid_mode ON;
        control_mode RAMP;
        resolve_mode DEADBAND;
        period 900;
        average_target current_price_mean_30min;           
        standard_deviation_target current_price_stdev_30min;  
        target inlet_water_temperature;
        setpoint tank_setpoint;
        demand actual_load;
        total actual_load;
        load actual_load;
      };
      };

}

